<?xml version="1.0" ?>
<routes xmlns_xsi="http://www.w3.org/2001/XMLSchema-instance" xsi_noNamespaceSchemaLocation="http://sumo.dlr.de/xsd/routes_file.xsd">
  <vehicle id="car0" depart="0.00" type="vehicle.jeep.wrangler_rubicon" departPos="stop">
    <route edges="E0"/>
    <stop parkingArea="pa_43" duration="600"/>
  </vehicle>
  <vehicle id="car1" depart="1.00" type="vehicle.jeep.wrangler_rubicon" departPos="stop">
    <route edges="E1"/>
    <stop parkingArea="pa_10" duration="600"/>
  </vehicle>
  <vehicle id="car2" depart="2.00" type="vehicle.tesla.model3" departPos="stop">
    <route edges="E28.12"/>
    <stop parkingArea="pa_8" duration="600"/>
  </vehicle>
  <vehicle id="car3" depart="3.00" type="vehicle.lincoln.mkz_2017" departPos="stop">
    <route edges="E27.16"/>
    <stop parkingArea="pa_58" duration="600"/>
  </vehicle>
  <vehicle id="car4" depart="4.00" type="vehicle.ford.mustang" departPos="stop">
    <route edges="E0"/>
    <stop parkingArea="pa_40" duration="600"/>
  </vehicle>
  <vehicle id="car5" depart="5.00" type="vehicle.mini.cooper_s" departPos="stop">
    <route edges="E27.16"/>
    <stop parkingArea="pa_59" duration="600"/>
  </vehicle>
  <vehicle id="car6" depart="6.00" type="vehicle.nissan.micra" departPos="stop">
    <route edges="E0"/>
    <stop parkingArea="pa_46" duration="600"/>
  </vehicle>
  <vehicle id="car7" depart="7.00" type="vehicle.volkswagen.t2" departPos="stop">
    <route edges="E27.16"/>
    <stop parkingArea="pa_56" duration="600"/>
  </vehicle>
  <vehicle id="car8" depart="8.00" type="vehicle.chevrolet.impala" departPos="stop">
    <route edges="E1"/>
    <stop parkingArea="pa_18" duration="600"/>
  </vehicle>
  <vehicle id="car9" depart="9.00" type="vehicle.tesla.model3" departPos="stop">
    <route edges="E28.12"/>
    <stop parkingArea="pa_6" duration="600"/>
  </vehicle>
  <vehicle id="car10" depart="10.00" type="vehicle.mini.cooper_s" departPos="stop">
    <route edges="E0"/>
    <stop parkingArea="pa_41" duration="600"/>
  </vehicle>
  <vehicle id="car11" depart="11.00" type="vehicle.nissan.patrol" departPos="stop">
    <route edges="E1"/>
    <stop parkingArea="pa_17" duration="600"/>
  </vehicle>
  <vehicle id="car12" depart="12.00" type="vehicle.mercedes.coupe" departPos="stop">
    <route edges="E24"/>
    <stop parkingArea="pa_1" duration="600"/>
  </vehicle>
  <vehicle id="car13" depart="13.00" type="vehicle.dodge.charger_police" departPos="stop">
    <route edges="E27"/>
    <stop parkingArea="pa_51" duration="600"/>
  </vehicle>
  <vehicle id="car14" depart="14.00" type="vehicle.nissan.micra" departPos="stop">
    <route edges="E1"/>
    <stop parkingArea="pa_21" duration="600"/>
  </vehicle>
  <vehicle id="car15" depart="15.00" type="vehicle.volkswagen.t2" departPos="stop">
    <route edges="E24"/>
    <stop parkingArea="pa_0" duration="600"/>
  </vehicle>
  <vehicle id="car16" depart="16.00" type="vehicle.volkswagen.t2" departPos="stop">
    <route edges="E27"/>
    <stop parkingArea="pa_54" duration="600"/>
  </vehicle>
  <vehicle id="car17" depart="17.00" type="vehicle.nissan.micra" departPos="stop">
    <route edges="E1"/>
    <stop parkingArea="pa_16" duration="600"/>
  </vehicle>
  <vehicle id="car18" depart="18.00" type="vehicle.ford.mustang" departPos="stop">
    <route edges="E27"/>
    <stop parkingArea="pa_53" duration="600"/>
  </vehicle>
  <vehicle id="car19" depart="19.00" type="vehicle.jeep.wrangler_rubicon" departPos="stop">
    <route edges="E0"/>
    <stop parkingArea="pa_31" duration="600"/>
  </vehicle>
  <vehicle id="car20" depart="20.00" type="vehicle.mini.cooper_s" departPos="stop">
    <route edges="E1"/>
    <stop parkingArea="pa_22" duration="600"/>
  </vehicle>
  <vehicle id="car21" depart="21.00" type="vehicle.nissan.patrol" departPos="stop">
    <route edges="E1"/>
    <stop parkingArea="pa_11" duration="600"/>
  </vehicle>
  <vehicle id="car22" depart="22.00" type="vehicle.lincoln.mkz_2017" departPos="stop">
    <route edges="E0"/>
    <stop parkingArea="pa_49" duration="600"/>
  </vehicle>
  <vehicle id="car23" depart="23.00" type="vehicle.audi.etron" departPos="stop">
    <route edges="E1"/>
    <stop parkingArea="pa_19" duration="600"/>
  </vehicle>
  <vehicle id="car24" depart="24.00" type="vehicle.toyota.prius" departPos="stop">
    <route edges="E24"/>
    <stop parkingArea="pa_3" duration="600"/>
  </vehicle>
  <vehicle id="car25" depart="25.00" type="vehicle.tesla.model3" departPos="stop">
    <route edges="E24"/>
    <stop parkingArea="pa_4" duration="600"/>
  </vehicle>
  <vehicle id="car26" depart="26.00" type="vehicle.ford.mustang" departPos="stop">
    <route edges="E0"/>
    <stop parkingArea="pa_38" duration="600"/>
  </vehicle>
  <vehicle id="car27" depart="27.00" type="vehicle.chevrolet.impala" departPos="stop">
    <route edges="E27"/>
    <stop parkingArea="pa_52" duration="600"/>
  </vehicle>
  <vehicle id="car28" depart="28.00" type="vehicle.mercedes.coupe" departPos="stop">
    <route edges="E0"/>
    <stop parkingArea="pa_37" duration="600"/>
  </vehicle>
  <vehicle id="car29" depart="29.00" type="vehicle.seat.leon" departPos="stop">
    <route edges="E1"/>
    <stop parkingArea="pa_28" duration="600"/>
  </vehicle>
  <vehicle id="car30" depart="30.00" type="vehicle.toyota.prius" departPos="stop">
    <route edges="E0"/>
    <stop parkingArea="pa_30" duration="600"/>
  </vehicle>
  <vehicle id="car31" depart="31.00" type="vehicle.mini.cooper_s" departPos="stop">
    <route edges="E1"/>
    <stop parkingArea="pa_26" duration="600"/>
  </vehicle>
  <vehicle id="car32" depart="32.00" type="vehicle.mercedes.coupe" departPos="stop">
    <route edges="E0"/>
    <stop parkingArea="pa_36" duration="600"/>
  </vehicle>
  <vehicle id="car33" depart="33.00" type="vehicle.volkswagen.t2" departPos="stop">
    <route edges="E1"/>
    <stop parkingArea="pa_25" duration="600"/>
  </vehicle>
  <vehicle id="car34" depart="34.00" type="vehicle.micro.microlino" departPos="stop">
    <route edges="E0"/>
    <stop parkingArea="pa_45" duration="600"/>
  </vehicle>
  <vehicle id="car35" depart="35.00" type="vehicle.volkswagen.t2" departPos="stop">
    <route edges="E1"/>
    <stop parkingArea="pa_24" duration="600"/>
  </vehicle>
  <vehicle id="car36" depart="36.00" type="vehicle.mini.cooper_s" departPos="stop">
    <route edges="E1"/>
    <stop parkingArea="pa_29" duration="600"/>
  </vehicle>
  <vehicle id="car37" depart="37.00" type="vehicle.seat.leon" departPos="stop">
    <route edges="E1"/>
    <stop parkingArea="pa_23" duration="600"/>
  </vehicle>
  <vehicle id="car38" depart="38.00" type="vehicle.micro.microlino" departPos="stop">
    <route edges="E0"/>
    <stop parkingArea="pa_34" duration="600"/>
  </vehicle>
  <vehicle id="car39" depart="39.00" type="vehicle.mercedes.coupe" departPos="stop">
    <route edges="E27"/>
    <stop parkingArea="pa_50" duration="600"/>
  </vehicle>
  <vehicle id="car40" depart="40.00" type="vehicle.audi.etron" departPos="stop">
    <route edges="E1"/>
    <stop parkingArea="pa_27" duration="600"/>
  </vehicle>
  <vehicle id="car41" depart="41.00" type="vehicle.chevrolet.impala" departPos="stop">
    <route edges="E0"/>
    <stop parkingArea="pa_39" duration="600"/>
  </vehicle>
  <vehicle id="car42" depart="42.00" type="vehicle.ford.mustang" departPos="stop">
    <route edges="E0"/>
    <stop parkingArea="pa_33" duration="600"/>
  </vehicle>
  <vehicle id="car43" depart="43.00" type="vehicle.seat.leon" departPos="stop">
    <route edges="E0"/>
    <stop parkingArea="pa_42" duration="600"/>
  </vehicle>
  <vehicle id="car44" depart="44.00" type="vehicle.mercedes.coupe" departPos="stop">
    <route edges="E28.12"/>
    <stop parkingArea="pa_5" duration="600"/>
  </vehicle>
  <vehicle id="car45" depart="45.00" type="vehicle.lincoln.mkz_2017" departPos="stop">
    <route edges="E0"/>
    <stop parkingArea="pa_35" duration="600"/>
  </vehicle>
  <vehicle id="car46" depart="46.00" type="vehicle.lincoln.mkz_2017" departPos="stop">
    <route edges="E1"/>
    <stop parkingArea="pa_13" duration="600"/>
  </vehicle>
  <vehicle id="car47" depart="47.00" type="vehicle.audi.a2" departPos="stop">
    <route edges="E1"/>
    <stop parkingArea="pa_14" duration="600"/>
  </vehicle>
  <vehicle id="car48" depart="48.00" type="vehicle.mercedes.coupe" departPos="stop">
    <route edges="E0"/>
    <stop parkingArea="pa_44" duration="600"/>
  </vehicle>
  <vehicle id="car49" depart="49.00" type="vehicle.nissan.patrol" departPos="stop">
    <route edges="E28.12"/>
    <stop parkingArea="pa_9" duration="600"/>
  </vehicle>
  <vehicle id="car50" depart="50.00" type="vehicle.lincoln.mkz_2017" departPos="stop">
    <route edges="E28.12"/>
    <stop parkingArea="pa_7" duration="600"/>
  </vehicle>
  <vehicle id="car51" depart="51.00" type="vehicle.chevrolet.impala" departPos="stop">
    <route edges="E27.16"/>
    <stop parkingArea="pa_55" duration="600"/>
  </vehicle>
  <vehicle id="car52" depart="52.00" type="vehicle.audi.etron" departPos="stop">
    <route edges="E0"/>
    <stop parkingArea="pa_32" duration="600"/>
  </vehicle>
  <vehicle id="car53" depart="53.00" type="vehicle.nissan.patrol" departPos="stop">
    <route edges="E0"/>
    <stop parkingArea="pa_47" duration="600"/>
  </vehicle>
  <vehicle id="car54" depart="54.00" type="vehicle.nissan.micra" departPos="stop">
    <route edges="E24"/>
    <stop parkingArea="pa_2" duration="600"/>
  </vehicle>
  <vehicle id="car55" depart="55.00" type="vehicle.toyota.prius" departPos="stop">
    <route edges="E1"/>
    <stop parkingArea="pa_20" duration="600"/>
  </vehicle>
  <vehicle id="car56" depart="56.00" type="vehicle.seat.leon" departPos="stop">
    <route edges="E27.16"/>
    <stop parkingArea="pa_57" duration="600"/>
  </vehicle>
  <vehicle id="car57" depart="57.00" type="vehicle.chevrolet.impala" departPos="stop">
    <route edges="E0"/>
    <stop parkingArea="pa_48" duration="600"/>
  </vehicle>
  <vehicle id="car58" depart="58.00" type="vehicle.dodge.charger_police" departPos="stop">
    <route edges="E1"/>
    <stop parkingArea="pa_12" duration="600"/>
  </vehicle>
  <vehicle id="car59" depart="59.00" type="vehicle.dodge.charger_police" departPos="stop">
    <route edges="E1"/>
    <stop parkingArea="pa_15" duration="600"/>
  </vehicle>
</routes>
