<?xml version="1.0" ?>
<routes xmlns_xsi="http://www.w3.org/2001/XMLSchema-instance" xsi_noNamespaceSchemaLocation="http://sumo.dlr.de/xsd/routes_file.xsd">
  <person id="person0" type="walker.pedestrian.0001" depart="1.00">
    <walk edges="E26.14 E0 E28.16 E1"/>
  </person>
  <person id="person1" type="walker.pedestrian.0004" depart="7.00">
    <walk edges="E24 E26.14 E0 E28.16 E1"/>
  </person>
  <person id="person2" type="walker.pedestrian.0011" depart="13.00">
    <walk edges="E28.12 E1 E26.14 E27"/>
  </person>
  <person id="person3" type="walker.pedestrian.0004" depart="19.00">
    <walk edges="E24 E1 E28.16 E0 E26.14"/>
  </person>
  <person id="person4" type="walker.pedestrian.0028" depart="25.00">
    <walk edges="E27 E26.14 E1 E28.16 E0"/>
  </person>
  <person id="person5" type="walker.pedestrian.0017" depart="31.00">
    <walk edges="E28.16 E1 E24"/>
  </person>
  <person id="person6" type="walker.pedestrian.0028" depart="37.00">
    <walk edges="E0 E28.16 E1"/>
  </person>
  <person id="person7" type="walker.pedestrian.0020" depart="43.00">
    <walk edges="E27 E27.16 E28.16 E1 E26.14"/>
  </person>
  <person id="person8" type="walker.pedestrian.0001" depart="49.00">
    <walk edges="E1 E28.16 E0 E26.14 E24"/>
  </person>
  <person id="person9" type="walker.pedestrian.0032" depart="55.00">
    <walk edges="E24 E1 E28.16 E0 E26.14"/>
  </person>
  <person id="person10" type="walker.pedestrian.0026" depart="61.00">
    <walk edges="E1 E28.16 E0 E26.14"/>
  </person>
  <person id="person11" type="walker.pedestrian.0012" depart="67.00">
    <walk edges="E26.14 E0 E28.16 E1"/>
  </person>
  <person id="person12" type="walker.pedestrian.0021" depart="73.00">
    <walk edges="E28.16 E1 E24"/>
  </person>
  <person id="person13" type="walker.pedestrian.0003" depart="79.00">
    <walk edges="E26.14 E0 E28.16 E1 E24"/>
  </person>
  <person id="person14" type="walker.pedestrian.0028" depart="85.00">
    <walk edges="E26.14 E0 E27.16"/>
  </person>
  <person id="person15" type="walker.pedestrian.0031" depart="91.00">
    <walk edges="E24 E1 E28.16 E27.16 E27"/>
  </person>
  <person id="person16" type="walker.pedestrian.0004" depart="97.00">
    <walk edges="E1 E28.16 E27.16"/>
  </person>
  <person id="person17" type="walker.pedestrian.0018" depart="103.00">
    <walk edges="E27 E27.16 E28.16 E1 E24"/>
  </person>
  <person id="person18" type="walker.pedestrian.0019" depart="109.00">
    <walk edges="E28.12 E1 E26.14 E27"/>
  </person>
  <person id="person19" type="walker.pedestrian.0031" depart="115.00">
    <walk edges="E1 E28.16 E0 E26.14"/>
  </person>
  <person id="person20" type="walker.pedestrian.0032" depart="121.00">
    <walk edges="E27.16 E0 E26.14"/>
  </person>
  <person id="person21" type="walker.pedestrian.0001" depart="127.00">
    <walk edges="E28.16 E0 E27"/>
  </person>
  <person id="person22" type="walker.pedestrian.0010" depart="133.00">
    <walk edges="E24 E1 E28.16 E27.16 E27"/>
  </person>
  <person id="person23" type="walker.pedestrian.0031" depart="139.00">
    <walk edges="E27.16 E0 E26.14 E24 E28.12"/>
  </person>
  <person id="person24" type="walker.pedestrian.0023" depart="145.00">
    <walk edges="E26.14 E0 E27.16"/>
  </person>
  <person id="person25" type="walker.pedestrian.0026" depart="151.00">
    <walk edges="E24 E26.14 E0 E28.16 E28.12"/>
  </person>
  <person id="person26" type="walker.pedestrian.0024" depart="157.00">
    <walk edges="E28.16 E1 E24"/>
  </person>
  <person id="person27" type="walker.pedestrian.0007" depart="163.00">
    <walk edges="E1 E28.16 E0 E26.14 E24"/>
  </person>
  <person id="person28" type="walker.pedestrian.0010" depart="169.00">
    <walk edges="E1 E28.16 E0 E26.14 E24"/>
  </person>
  <person id="person29" type="walker.pedestrian.0025" depart="175.00">
    <walk edges="E27 E27.16 E28.16 E1 E24"/>
  </person>
  <person id="person30" type="walker.pedestrian.0010" depart="181.00">
    <walk edges="E0 E28.16 E28.12"/>
  </person>
  <person id="person31" type="walker.pedestrian.0004" depart="187.00">
    <walk edges="E28.16 E0 E26.14 E1"/>
  </person>
  <person id="person32" type="walker.pedestrian.0004" depart="193.00">
    <walk edges="E27.16 E28.16 E1 E24"/>
  </person>
  <person id="person33" type="walker.pedestrian.0014" depart="199.00">
    <walk edges="E27.16 E28.16 E1"/>
  </person>
  <person id="person34" type="walker.pedestrian.0024" depart="205.00">
    <walk edges="E27 E26.14 E1 E28.12"/>
  </person>
  <person id="person35" type="walker.pedestrian.0018" depart="211.00">
    <walk edges="E0 E26.14 E1 E28.16 E27.16"/>
  </person>
  <person id="person36" type="walker.pedestrian.0019" depart="217.00">
    <walk edges="E28.16 E0 E26.14 E24 E28.12"/>
  </person>
  <person id="person37" type="walker.pedestrian.0018" depart="223.00">
    <walk edges="E0 E26.14 E1 E28.16 E27.16"/>
  </person>
  <person id="person38" type="walker.pedestrian.0015" depart="229.00">
    <walk edges="E28.12 E24 E26.14 E0 E28.16"/>
  </person>
  <person id="person39" type="walker.pedestrian.0017" depart="235.00">
    <walk edges="E27.16 E28.16 E1"/>
  </person>
  <person id="person40" type="walker.pedestrian.0001" depart="241.00">
    <walk edges="E28.16 E1 E26.14 E0"/>
  </person>
  <person id="person41" type="walker.pedestrian.0027" depart="247.00">
    <walk edges="E24 E1 E28.16"/>
  </person>
  <person id="person42" type="walker.pedestrian.0004" depart="253.00">
    <walk edges="E28.12 E28.16 E0 E26.14 E1"/>
  </person>
  <person id="person43" type="walker.pedestrian.0004" depart="259.00">
    <walk edges="E24 E26.14 E0 E28.16 E1"/>
  </person>
  <person id="person44" type="walker.pedestrian.0018" depart="265.00">
    <walk edges="E1 E28.16 E0"/>
  </person>
  <person id="person45" type="walker.pedestrian.0004" depart="271.00">
    <walk edges="E28.12 E28.16 E0"/>
  </person>
  <person id="person46" type="walker.pedestrian.0022" depart="277.00">
    <walk edges="E26.14 E1 E28.12"/>
  </person>
  <person id="person47" type="walker.pedestrian.0010" depart="283.00">
    <walk edges="E27 E27.16 E28.16 E1 E26.14"/>
  </person>
  <person id="person48" type="walker.pedestrian.0024" depart="289.00">
    <walk edges="E1 E26.14 E0 E28.16 E28.12"/>
  </person>
  <person id="person49" type="walker.pedestrian.0026" depart="295.00">
    <walk edges="E28.12 E28.16 E0 E26.14 E24"/>
  </person>
  <person id="person50" type="walker.pedestrian.0004" depart="301.00">
    <walk edges="E26.14 E1 E28.16"/>
  </person>
  <person id="person51" type="walker.pedestrian.0007" depart="307.00">
    <walk edges="E1 E28.16 E0 E26.14"/>
  </person>
  <person id="person52" type="walker.pedestrian.0009" depart="313.00">
    <walk edges="E0 E28.16 E28.12"/>
  </person>
  <person id="person53" type="walker.pedestrian.0007" depart="319.00">
    <walk edges="E26.14 E1 E28.16 E27.16 E27"/>
  </person>
  <person id="person54" type="walker.pedestrian.0005" depart="325.00">
    <walk edges="E1 E26.14 E27"/>
  </person>
  <person id="person55" type="walker.pedestrian.0002" depart="331.00">
    <walk edges="E24 E1 E28.16 E27.16"/>
  </person>
  <person id="person56" type="walker.pedestrian.0003" depart="337.00">
    <walk edges="E24 E1 E28.16 E27.16 E27"/>
  </person>
  <person id="person57" type="walker.pedestrian.0010" depart="343.00">
    <walk edges="E28.16 E1 E24"/>
  </person>
  <person id="person58" type="walker.pedestrian.0019" depart="349.00">
    <walk edges="E27 E26.14 E1 E28.12"/>
  </person>
  <person id="person59" type="walker.pedestrian.0029" depart="355.00">
    <walk edges="E24 E1 E28.16 E27.16"/>
  </person>
  <person id="person60" type="walker.pedestrian.0015" depart="361.00">
    <walk edges="E27 E26.14 E1 E28.16 E27.16"/>
  </person>
  <person id="person61" type="walker.pedestrian.0030" depart="367.00">
    <walk edges="E28.16 E0 E26.14 E24 E28.12"/>
  </person>
  <person id="person62" type="walker.pedestrian.0030" depart="373.00">
    <walk edges="E0 E26.14 E1 E28.16"/>
  </person>
  <person id="person63" type="walker.pedestrian.0004" depart="379.00">
    <walk edges="E27 E26.14 E1 E28.16 E0"/>
  </person>
  <person id="person64" type="walker.pedestrian.0024" depart="385.00">
    <walk edges="E26.14 E1 E28.16 E0"/>
  </person>
  <person id="person65" type="walker.pedestrian.0019" depart="391.00">
    <walk edges="E27.16 E28.16 E1 E24"/>
  </person>
  <person id="person66" type="walker.pedestrian.0014" depart="397.00">
    <walk edges="E24 E26.14 E0 E28.16 E1"/>
  </person>
  <person id="person67" type="walker.pedestrian.0023" depart="403.00">
    <walk edges="E28.16 E0 E26.14 E24 E28.12"/>
  </person>
  <person id="person68" type="walker.pedestrian.0016" depart="409.00">
    <walk edges="E0 E26.14 E1 E28.16"/>
  </person>
  <person id="person69" type="walker.pedestrian.0028" depart="415.00">
    <walk edges="E24 E26.14 E0"/>
  </person>
  <person id="person70" type="walker.pedestrian.0023" depart="421.00">
    <walk edges="E24 E1 E28.16 E27.16"/>
  </person>
  <person id="person71" type="walker.pedestrian.0015" depart="427.00">
    <walk edges="E26.14 E0 E28.16 E1 E24"/>
  </person>
  <person id="person72" type="walker.pedestrian.0008" depart="433.00">
    <walk edges="E27 E26.14 E1 E28.16 E27.16"/>
  </person>
  <person id="person73" type="walker.pedestrian.0012" depart="439.00">
    <walk edges="E28.16 E0 E26.14 E24 E28.12"/>
  </person>
  <person id="person74" type="walker.pedestrian.0028" depart="445.00">
    <walk edges="E24 E26.14 E0"/>
  </person>
  <person id="person75" type="walker.pedestrian.0025" depart="451.00">
    <walk edges="E27.16 E0 E26.14"/>
  </person>
  <person id="person76" type="walker.pedestrian.0009" depart="457.00">
    <walk edges="E28.12 E28.16 E0 E26.14 E1"/>
  </person>
  <person id="person77" type="walker.pedestrian.0001" depart="463.00">
    <walk edges="E27.16 E28.16 E1 E26.14 E27"/>
  </person>
  <person id="person78" type="walker.pedestrian.0013" depart="469.00">
    <walk edges="E27.16 E28.16 E1 E26.14 E0"/>
  </person>
  <person id="person79" type="walker.pedestrian.0015" depart="475.00">
    <walk edges="E27.16 E0 E26.14 E1 E28.16"/>
  </person>
  <person id="person80" type="walker.pedestrian.0018" depart="481.00">
    <walk edges="E27.16 E28.16 E1 E24"/>
  </person>
  <person id="person81" type="walker.pedestrian.0005" depart="487.00">
    <walk edges="E27.16 E28.16 E1 E26.14 E27"/>
  </person>
  <person id="person82" type="walker.pedestrian.0026" depart="493.00">
    <walk edges="E28.12 E28.16 E0"/>
  </person>
  <person id="person83" type="walker.pedestrian.0009" depart="499.00">
    <walk edges="E0 E26.14 E1 E28.16 E27.16"/>
  </person>
  <person id="person84" type="walker.pedestrian.0029" depart="505.00">
    <walk edges="E24 E1 E28.16"/>
  </person>
  <person id="person85" type="walker.pedestrian.0002" depart="511.00">
    <walk edges="E26.14 E1 E28.16"/>
  </person>
  <person id="person86" type="walker.pedestrian.0026" depart="517.00">
    <walk edges="E27.16 E28.16 E1 E24"/>
  </person>
  <person id="person87" type="walker.pedestrian.0018" depart="523.00">
    <walk edges="E26.14 E1 E28.16 E27.16 E27"/>
  </person>
  <person id="person88" type="walker.pedestrian.0016" depart="529.00">
    <walk edges="E0 E28.16 E1"/>
  </person>
  <person id="person89" type="walker.pedestrian.0016" depart="535.00">
    <walk edges="E27 E26.14 E1 E28.16 E27.16"/>
  </person>
  <person id="person90" type="walker.pedestrian.0028" depart="541.00">
    <walk edges="E27.16 E0 E26.14 E1 E28.16"/>
  </person>
  <person id="person91" type="walker.pedestrian.0027" depart="547.00">
    <walk edges="E24 E1 E28.16 E0 E26.14"/>
  </person>
  <person id="person92" type="walker.pedestrian.0013" depart="553.00">
    <walk edges="E28.12 E28.16 E0 E26.14 E1"/>
  </person>
  <person id="person93" type="walker.pedestrian.0015" depart="559.00">
    <walk edges="E28.16 E1 E26.14 E0"/>
  </person>
  <person id="person94" type="walker.pedestrian.0011" depart="565.00">
    <walk edges="E0 E28.16 E28.12"/>
  </person>
  <person id="person95" type="walker.pedestrian.0025" depart="571.00">
    <walk edges="E28.16 E1 E26.14 E0 E27.16"/>
  </person>
  <person id="person96" type="walker.pedestrian.0005" depart="577.00">
    <walk edges="E28.12 E28.16 E0"/>
  </person>
  <person id="person97" type="walker.pedestrian.0032" depart="583.00">
    <walk edges="E1 E28.16 E0 E26.14"/>
  </person>
  <person id="person98" type="walker.pedestrian.0007" depart="589.00">
    <walk edges="E1 E28.16 E0"/>
  </person>
  <person id="person99" type="walker.pedestrian.0002" depart="595.00">
    <walk edges="E27 E26.14 E1 E28.16 E0"/>
  </person>
</routes>
