<?xml version="1.0" ?>
<routes xmlns_xsi="http://www.w3.org/2001/XMLSchema-instance" xsi_noNamespaceSchemaLocation="http://sumo.dlr.de/xsd/routes_file.xsd">
  <person id="person0" type="walker.pedestrian.0001" depart="5.00">
    <personTrip from="E27.16" to="E26.14" walkFactor="0.75"/>
  </person>
  <person id="person1" type="walker.pedestrian.0016" depart="5.50">
    <personTrip from="E3" to="-E3" walkFactor="0.75"/>
  </person>
  <person id="person2" type="walker.pedestrian.0027" depart="6.00">
    <personTrip from="-E2" to="E26.14" walkFactor="0.75"/>
  </person>
  <person id="person3" type="walker.pedestrian.0014" depart="6.50">
    <personTrip from="E27.16" to="E27.16" walkFactor="0.75"/>
  </person>
  <person id="person4" type="walker.pedestrian.0023" depart="7.00">
    <personTrip from="E26.14" to="E26.14" walkFactor="0.75"/>
  </person>
  <person id="person5" type="walker.pedestrian.0015" depart="7.50">
    <personTrip from="-E3" to="-E2" walkFactor="0.75"/>
  </person>
  <person id="person6" type="walker.pedestrian.0019" depart="8.00">
    <personTrip from="E3" to="-E2" walkFactor="0.75"/>
  </person>
  <person id="person7" type="walker.pedestrian.0024" depart="8.50">
    <personTrip from="-E2" to="-E2" walkFactor="0.75"/>
  </person>
  <person id="person8" type="walker.pedestrian.0024" depart="9.00">
    <personTrip from="-E3" to="E24" walkFactor="0.75"/>
  </person>
  <person id="person9" type="walker.pedestrian.0007" depart="9.50">
    <personTrip from="-E2" to="E27" walkFactor="0.75"/>
  </person>
  <person id="person10" type="walker.pedestrian.0021" depart="10.00">
    <personTrip from="E26.14" to="-E3" walkFactor="0.75"/>
  </person>
  <person id="person11" type="walker.pedestrian.0010" depart="10.50">
    <personTrip from="E24" to="E3" walkFactor="0.75"/>
  </person>
  <person id="person12" type="walker.pedestrian.0032" depart="11.00">
    <personTrip from="E27.16" to="-E3" walkFactor="0.75"/>
  </person>
  <person id="person13" type="walker.pedestrian.0030" depart="11.50">
    <personTrip from="E26.14" to="E27" walkFactor="0.75"/>
  </person>
  <person id="person14" type="walker.pedestrian.0029" depart="12.00">
    <personTrip from="E3" to="E27" walkFactor="0.75"/>
  </person>
  <person id="person15" type="walker.pedestrian.0029" depart="12.50">
    <personTrip from="E28.16" to="E26.14" walkFactor="0.75"/>
  </person>
  <person id="person16" type="walker.pedestrian.0024" depart="13.00">
    <personTrip from="E27" to="E28.16" walkFactor="0.75"/>
  </person>
  <person id="person17" type="walker.pedestrian.0027" depart="13.50">
    <personTrip from="E24" to="-E3" walkFactor="0.75"/>
  </person>
  <person id="person18" type="walker.pedestrian.0011" depart="14.00">
    <personTrip from="E3" to="E28.12" walkFactor="0.75"/>
  </person>
  <person id="person19" type="walker.pedestrian.0001" depart="14.50">
    <personTrip from="E27" to="E28.12" walkFactor="0.75"/>
  </person>
  <person id="person20" type="walker.pedestrian.0024" depart="15.00">
    <personTrip from="E3" to="-E3" walkFactor="0.75"/>
  </person>
  <person id="person21" type="walker.pedestrian.0027" depart="15.50">
    <personTrip from="E26.14" to="E28.16" walkFactor="0.75"/>
  </person>
  <person id="person22" type="walker.pedestrian.0003" depart="16.00">
    <personTrip from="E24" to="-E3" walkFactor="0.75"/>
  </person>
  <person id="person23" type="walker.pedestrian.0002" depart="16.50">
    <personTrip from="-E3" to="E3" walkFactor="0.75"/>
  </person>
  <person id="person24" type="walker.pedestrian.0013" depart="17.00">
    <personTrip from="E26.14" to="E27.16" walkFactor="0.75"/>
  </person>
  <person id="person25" type="walker.pedestrian.0024" depart="17.50">
    <personTrip from="E24" to="E28.16" walkFactor="0.75"/>
  </person>
  <person id="person26" type="walker.pedestrian.0025" depart="18.00">
    <personTrip from="-E3" to="E28.12" walkFactor="0.75"/>
  </person>
  <person id="person27" type="walker.pedestrian.0008" depart="18.50">
    <personTrip from="E27.16" to="E28.12" walkFactor="0.75"/>
  </person>
  <person id="person28" type="walker.pedestrian.0001" depart="19.00">
    <personTrip from="E27" to="E27" walkFactor="0.75"/>
  </person>
  <person id="person29" type="walker.pedestrian.0002" depart="19.50">
    <personTrip from="E27.16" to="-E2" walkFactor="0.75"/>
  </person>
  <person id="person30" type="walker.pedestrian.0012" depart="20.00">
    <personTrip from="E24" to="-E3" walkFactor="0.75"/>
  </person>
  <person id="person31" type="walker.pedestrian.0020" depart="20.50">
    <personTrip from="E27.16" to="E27.16" walkFactor="0.75"/>
  </person>
  <person id="person32" type="walker.pedestrian.0001" depart="21.00">
    <personTrip from="E27.16" to="E28.12" walkFactor="0.75"/>
  </person>
  <person id="person33" type="walker.pedestrian.0030" depart="21.50">
    <personTrip from="E28.12" to="-E2" walkFactor="0.75"/>
  </person>
  <person id="person34" type="walker.pedestrian.0014" depart="22.00">
    <personTrip from="E26.14" to="E27.16" walkFactor="0.75"/>
  </person>
  <person id="person35" type="walker.pedestrian.0019" depart="22.50">
    <personTrip from="E27" to="E28.12" walkFactor="0.75"/>
  </person>
  <person id="person36" type="walker.pedestrian.0028" depart="23.00">
    <personTrip from="E3" to="-E3" walkFactor="0.75"/>
  </person>
  <person id="person37" type="walker.pedestrian.0013" depart="23.50">
    <personTrip from="E3" to="E27.16" walkFactor="0.75"/>
  </person>
  <person id="person38" type="walker.pedestrian.0022" depart="24.00">
    <personTrip from="E27.16" to="E28.16" walkFactor="0.75"/>
  </person>
  <person id="person39" type="walker.pedestrian.0016" depart="24.50">
    <personTrip from="-E2" to="E27" walkFactor="0.75"/>
  </person>
  <person id="person40" type="walker.pedestrian.0019" depart="25.00">
    <personTrip from="E28.12" to="E26.14" walkFactor="0.75"/>
  </person>
  <person id="person41" type="walker.pedestrian.0021" depart="25.50">
    <personTrip from="E28.16" to="E24" walkFactor="0.75"/>
  </person>
  <person id="person42" type="walker.pedestrian.0005" depart="26.00">
    <personTrip from="E26.14" to="E24" walkFactor="0.75"/>
  </person>
  <person id="person43" type="walker.pedestrian.0005" depart="26.50">
    <personTrip from="E28.12" to="-E3" walkFactor="0.75"/>
  </person>
  <person id="person44" type="walker.pedestrian.0009" depart="27.00">
    <personTrip from="E24" to="-E2" walkFactor="0.75"/>
  </person>
  <person id="person45" type="walker.pedestrian.0031" depart="27.50">
    <personTrip from="E28.16" to="E28.12" walkFactor="0.75"/>
  </person>
  <person id="person46" type="walker.pedestrian.0027" depart="28.00">
    <personTrip from="E28.16" to="E26.14" walkFactor="0.75"/>
  </person>
  <person id="person47" type="walker.pedestrian.0008" depart="28.50">
    <personTrip from="E28.12" to="-E2" walkFactor="0.75"/>
  </person>
  <person id="person48" type="walker.pedestrian.0026" depart="29.00">
    <personTrip from="E28.16" to="E28.12" walkFactor="0.75"/>
  </person>
  <person id="person49" type="walker.pedestrian.0008" depart="29.50">
    <personTrip from="E28.16" to="E27.16" walkFactor="0.75"/>
  </person>
</routes>
