<?xml version='1.0' encoding='UTF-8'?>
<routes xmlns:xsi="http://www.w3.org/2001/XMLSchema-instance" xsi:noNamespaceSchemaLocation="http://sumo.dlr.de/xsd/routes_file.xsd">
	
        <vehicle id="car0" type="vehicle.audi.tt" depart="0.00"  departPos="stop">
                <route edges="E1"/>
                <stop parkingArea="pa_12" duration="150"/>
        </vehicle>

	<personFlow id="personFlow1" type="walker.pedestrian.0001" begin="0" end="50" departPos="12" period="10">
		<walk from="E1" to="E28.12"/>
	</personFlow>

	<personFlow id="personFlow2" begin="0" type="walker.pedestrian.0001" end="50" departPos="27" period="10">
                <walk from="E1" to="E26.14"/>
        </personFlow>

<!--
        <person id="person0" type="walker.pedestrian.0001" depart="0.00">
		<walk edges=" E1 E28.12"/>
	</person>
	
	<person id="person1" type="walker.pedestrian.0001" depart="0.00">
                <walk edges="E28.12 E1 E26.14"/>
	</person>

        <person id="person2" type="walker.pedestrian.0001" depart="10.00">
                <walk edges=" E1 E28.12"/>
        </person>

        <person id="person3" type="walker.pedestrian.0001" depart="10.00">
                <walk edges="E28.12 E1 E26.14"/>
        </person>
-->

	<vehicle id="car1" type="vehicle.audi.etron" depart="0.00"  departPos="stop">
                <route edges="E1"/>
                <stop parkingArea="pa_22" duration="150"/>
        </vehicle>

		<!--
	<person id="3" type="walker.pedestrian.0001" depart="9.00">
		<walk edges="20.0.00" arrivalPos="0" />
		<ride lines="0" to="E0"/>
		<walk from="E0" to="E27"/>
		<walk from="E27" to="E9" arrivalPos="0" />
		<walk from="E9" to="E27"/>
		<walk from="E27" to="E0" arrivalPos="16.50"  />
		<ride lines="0" to="-7.0.00" />
	</person>
	
	<vehicle id="0" type="vehicle.audi.a2" depart="triggered">
                <route edges="20.0.00 48.0.00 -32.0.00 -16.0.00 -E3 E24 E26.14 E0 E28.16 E28.12 E24 E26.14 E27 E27.14 -E2 17.0.00.17 -7.0.00"/>
                <stop triggered="person" parkingArea="pa_45" duration="20.00"/>
        </vehicle>
		-->
</routes>
