<?xml version="1.0" ?>
<routes xmlns_xsi="http://www.w3.org/2001/XMLSchema-instance" xsi_noNamespaceSchemaLocation="http://sumo.dlr.de/xsd/routes_file.xsd">
  <vehicle id="car0" depart="0.00" type="vehicle.lincoln.mkz_2017" departPos="stop">
    <route edges="E0"/>
    <stop parkingArea="pa_40" duration="150"/>
  </vehicle>
  <vehicle id="car1" depart="0.50" type="vehicle.citroen.c3" departPos="stop">
    <route edges="E0"/>
    <stop parkingArea="pa_33" duration="150"/>
  </vehicle>
  <vehicle id="car2" depart="1.00" type="vehicle.volkswagen.t2" departPos="stop">
    <route edges="E1"/>
    <stop parkingArea="pa_22" duration="150"/>
  </vehicle>
  <vehicle id="car3" depart="1.50" type="vehicle.citroen.c3" departPos="stop">
    <route edges="E0"/>
    <stop parkingArea="pa_30" duration="150"/>
  </vehicle>
  <vehicle id="car4" depart="2.00" type="vehicle.mercedes.coupe" departPos="stop">
    <route edges="E0"/>
    <stop parkingArea="pa_46" duration="150"/>
  </vehicle>
  <vehicle id="car5" depart="2.50" type="vehicle.audi.etron" departPos="stop">
    <route edges="E1"/>
    <stop parkingArea="pa_27" duration="150"/>
  </vehicle>
  <vehicle id="car6" depart="3.00" type="vehicle.micro.microlino" departPos="stop">
    <route edges="E0"/>
    <stop parkingArea="pa_49" duration="150"/>
  </vehicle>
  <vehicle id="car7" depart="3.50" type="vehicle.volkswagen.t2" departPos="stop">
    <route edges="E28.12"/>
    <stop parkingArea="pa_5" duration="150"/>
  </vehicle>
  <vehicle id="car8" depart="4.00" type="vehicle.toyota.prius" departPos="stop">
    <route edges="E1"/>
    <stop parkingArea="pa_13" duration="150"/>
  </vehicle>
  <vehicle id="car9" depart="4.50" type="vehicle.micro.microlino" departPos="stop">
    <route edges="E27"/>
    <stop parkingArea="pa_50" duration="150"/>
  </vehicle>
  <vehicle id="car10" depart="5.00" type="vehicle.mini.cooper_s" departPos="stop">
    <route edges="E28.12"/>
    <stop parkingArea="pa_8" duration="150"/>
  </vehicle>
  <vehicle id="car11" depart="5.50" type="vehicle.toyota.prius" departPos="stop">
    <route edges="E1"/>
    <stop parkingArea="pa_18" duration="150"/>
  </vehicle>
  <vehicle id="car12" depart="6.00" type="vehicle.citroen.c3" departPos="stop">
    <route edges="E27"/>
    <stop parkingArea="pa_53" duration="150"/>
  </vehicle>
  <vehicle id="car13" depart="6.50" type="vehicle.audi.etron" departPos="stop">
    <route edges="E1"/>
    <stop parkingArea="pa_15" duration="150"/>
  </vehicle>
  <vehicle id="car14" depart="7.00" type="vehicle.volkswagen.t2" departPos="stop">
    <route edges="E1"/>
    <stop parkingArea="pa_29" duration="150"/>
  </vehicle>
  <vehicle id="car15" depart="7.50" type="vehicle.audi.etron" departPos="stop">
    <route edges="E1"/>
    <stop parkingArea="pa_12" duration="150"/>
  </vehicle>
  <vehicle id="car16" depart="8.00" type="vehicle.audi.etron" departPos="stop">
    <route edges="E1"/>
    <stop parkingArea="pa_28" duration="150"/>
  </vehicle>
  <vehicle id="car17" depart="8.50" type="vehicle.ford.mustang" departPos="stop">
    <route edges="E28.12"/>
    <stop parkingArea="pa_7" duration="150"/>
  </vehicle>
  <vehicle id="car18" depart="9.00" type="vehicle.nissan.micra" departPos="stop">
    <route edges="E0"/>
    <stop parkingArea="pa_45" duration="150"/>
  </vehicle>
  <vehicle id="car19" depart="9.50" type="vehicle.ford.mustang" departPos="stop">
    <route edges="E1"/>
    <stop parkingArea="pa_11" duration="150"/>
  </vehicle>
</routes>
