<?xml version="1.0" encoding="UTF-8"?>

<!-- generated on 2025-07-08 02:56:35 by Eclipse SUMO netedit Version 1.20.0
-->

<additional xmlns:xsi="http://www.w3.org/2001/XMLSchema-instance" xsi:noNamespaceSchemaLocation="http://sumo.dlr.de/xsd/additional_file.xsd">
    <!-- StoppingPlaces -->
    <parkingArea id="pa_0" lane="E24_0" startPos="0.00" endPos="1.50">
        <space x="283.10" y="233.00" z="0.20" width="2.6" length="4.9" angle="90"/>
    </parkingArea>
    <parkingArea id="pa_1" lane="E24_0" startPos="1.00" endPos="4.00">
        <space x="283.10" y="235.80" z="0.20" width="2.6" length="4.9" angle="90"/>
    </parkingArea>
    <parkingArea id="pa_10" lane="E1_1" startPos="19.00" endPos="20.00">
        <space x="266.80" y="219.00" z="0.20" width="2.6" length="4.9" angle="90.00"/>
    </parkingArea>
    <parkingArea id="pa_11" lane="E1_1" startPos="18.00" endPos="19.00">
        <space x="266.80" y="221.80" z="0.20" width="2.6" length="4.9" angle="90.00"/>
    </parkingArea>
    <parkingArea id="pa_12" lane="E1_1" startPos="17.00" endPos="18.00">
        <space x="266.80" y="224.60" z="0.20" width="2.6" length="4.9" angle="90.00"/>
    </parkingArea>
    <parkingArea id="pa_13" lane="E1_1" startPos="16.00" endPos="17.00">
        <space x="266.80" y="227.40" z="0.20" width="2.6" length="4.9" angle="90.00"/>
    </parkingArea>
    <parkingArea id="pa_14" lane="E1_1" startPos="13.00" endPos="16.00">
        <space x="266.80" y="230.20" z="0.20" width="2.6" length="4.9" angle="90.00"/>
    </parkingArea>
    <parkingArea id="pa_15" lane="E1_1" startPos="10.50" endPos="13.50">
        <space x="266.80" y="233.00" z="0.20" width="2.6" length="4.9" angle="90.00"/>
    </parkingArea>
    <parkingArea id="pa_16" lane="E1_1" startPos="7.50" endPos="10.00">
        <space x="266.80" y="235.80" z="0.20" width="2.6" length="4.9" angle="90.00"/>
    </parkingArea>
    <parkingArea id="pa_17" lane="E1_1" startPos="4.50" endPos="7.50">
        <space x="266.80" y="238.60" z="0.20" width="2.6" length="4.9" angle="90.00"/>
    </parkingArea>
    <parkingArea id="pa_18" lane="E1_1" startPos="1.50" endPos="4.50">
        <space x="266.80" y="241.40" z="0.20" width="2.6" length="4.9" angle="90.00"/>
    </parkingArea>
    <parkingArea id="pa_19" lane="E1_1" startPos="0.00" endPos="1.50">
        <space x="266.80" y="244.20" z="0.20" width="2.6" length="4.9" angle="90.00"/>
    </parkingArea>
    <parkingArea id="pa_2" lane="E24_0" startPos="4.00" endPos="7.00">
        <space x="283.10" y="238.60" z="0.20" width="2.6" length="4.9" angle="90"/>
    </parkingArea>
    <parkingArea id="pa_20" lane="E1_1" startPos="0.00" endPos="1.50" width="2.60" length="4.90" angle="-90.00">
        <space x="271.70" y="244.20" z="0.20"/>
    </parkingArea>
    <parkingArea id="pa_21" lane="E1_1" startPos="1.50" endPos="4.50" width="2.60" length="4.90" angle="-90.00">
        <space x="271.70" y="241.40" z="0.20"/>
    </parkingArea>
    <parkingArea id="pa_22" lane="E1_1" startPos="4.50" endPos="7.50" width="2.60" length="4.90" angle="-90.00">
        <space x="271.70" y="238.60" z="0.20"/>
    </parkingArea>
    <parkingArea id="pa_23" lane="E1_1" startPos="7.50" endPos="10.50" width="2.60" length="4.90" angle="-90.00">
        <space x="271.70" y="235.80" z="0.20"/>
    </parkingArea>
    <parkingArea id="pa_24" lane="E1_1" startPos="10.50" endPos="13.00" width="2.60" length="4.90" angle="-90.00">
        <space x="271.70" y="233.00" z="0.20"/>
    </parkingArea>
    <parkingArea id="pa_25" lane="E1_1" startPos="13.00" endPos="16.00" width="2.60" length="4.90" angle="-90.00">
        <space x="271.70" y="230.20" z="0.20"/>
    </parkingArea>
    <parkingArea id="pa_26" lane="E1_1" startPos="16.00" endPos="19.00" width="2.60" length="4.90" angle="-90.00">
        <space x="271.70" y="227.40" z="0.20"/>
    </parkingArea>
    <parkingArea id="pa_27" lane="E1_1" startPos="19.00" endPos="20.00" width="2.60" length="4.90" angle="-90.00">
        <space x="271.70" y="224.60" z="0.20"/>
    </parkingArea>
    <parkingArea id="pa_28" lane="E1_1" startPos="20.00" endPos="21.00" width="2.60" length="4.90" angle="-90.00">
        <space x="271.70" y="221.80" z="0.20"/>
    </parkingArea>
    <parkingArea id="pa_29" lane="E1_1" startPos="21.00" endPos="22.00" width="2.60" length="4.90" angle="-90.00">
        <space x="271.70" y="219.00" z="0.20"/>
    </parkingArea>
    <parkingArea id="pa_3" lane="E24_0" startPos="7.00" endPos="10.00">
        <space x="283.10" y="241.40" z="0.20" width="2.6" length="4.9" angle="90"/>
    </parkingArea>
    <parkingArea id="pa_30" lane="E0_1" startPos="19.50" endPos="20.50">
        <space x="250.30" y="219.00" z="0.20" width="2.6" length="4.9" angle="90.00"/>
    </parkingArea>
    <parkingArea id="pa_31" lane="E0_1" startPos="18.50" endPos="19.50">
        <space x="250.30" y="221.80" z="0.20" width="2.6" length="4.9" angle="90.00"/>
    </parkingArea>
    <parkingArea id="pa_32" lane="E0_1" startPos="17.50" endPos="18.50">
        <space x="250.30" y="224.60" z="0.20" width="2.6" length="4.9" angle="90.00"/>
    </parkingArea>
    <parkingArea id="pa_33" lane="E0_1" startPos="16.50" endPos="17.50">
        <space x="250.30" y="227.40" z="0.20" width="2.6" length="4.9" angle="90.00"/>
    </parkingArea>
    <parkingArea id="pa_34" lane="E0_1" startPos="13.50" endPos="16.50">
        <space x="250.30" y="230.20" z="0.20" width="2.6" length="4.9" angle="90.00"/>
    </parkingArea>
    <parkingArea id="pa_35" lane="E0_1" startPos="10.50" endPos="13.50">
        <space x="250.30" y="233.00" z="0.20" width="2.6" length="4.9" angle="90.00"/>
    </parkingArea>
    <parkingArea id="pa_36" lane="E0_1" startPos="7.50" endPos="10.50">
        <space x="250.30" y="235.80" z="0.20" width="2.6" length="4.9" angle="90.00"/>
    </parkingArea>
    <parkingArea id="pa_37" lane="E0_1" startPos="5.00" endPos="7.50">
        <space x="250.30" y="238.60" z="0.20" width="2.6" length="4.9" angle="90.00"/>
    </parkingArea>
    <parkingArea id="pa_38" lane="E0_1" startPos="2.00" endPos="5.00">
        <space x="250.30" y="241.40" z="0.20" width="2.6" length="4.9" angle="90.00"/>
    </parkingArea>
    <parkingArea id="pa_39" lane="E0_1" startPos="0.00" endPos="2.00">
        <space x="250.30" y="244.20" z="0.20" width="2.6" length="4.9" angle="90.00"/>
    </parkingArea>
    <parkingArea id="pa_4" lane="E24_0" startPos="10.00" endPos="12.50">
        <space x="283.10" y="244.20" z="0.20" width="2.6" length="4.9" angle="90"/>
    </parkingArea>
    <parkingArea id="pa_40" lane="E0_1" startPos="0.00" endPos="2.00" width="2.60" length="4.90" angle="-90.00">
        <space x="255.20" y="244.20" z="0.20"/>
    </parkingArea>
    <parkingArea id="pa_41" lane="E0_1" startPos="2.00" endPos="5.00" width="2.60" length="4.90" angle="-90.00">
        <space x="255.20" y="241.40" z="0.20"/>
    </parkingArea>
    <parkingArea id="pa_42" lane="E0_1" startPos="5.00" endPos="7.50" width="2.60" length="4.90" angle="-90.00">
        <space x="255.20" y="238.60" z="0.20"/>
    </parkingArea>
    <parkingArea id="pa_43" lane="E0_1" startPos="7.50" endPos="10.50" width="2.60" length="4.90" angle="-90.00">
        <space x="255.20" y="235.80" z="0.20"/>
    </parkingArea>
    <parkingArea id="pa_44" lane="E0_1" startPos="10.50" endPos="13.50" width="2.60" length="4.90" angle="-90.00">
        <space x="255.20" y="233.00" z="0.20"/>
    </parkingArea>
    <parkingArea id="pa_45" lane="E0_1" startPos="13.50" endPos="16.50" width="2.60" length="4.90" angle="-90.00">
        <space x="255.20" y="230.20" z="0.20"/>
    </parkingArea>
    <parkingArea id="pa_46" lane="E0_1" startPos="16.50" endPos="19.50" width="2.60" length="4.90" angle="-90.00">
        <space x="255.20" y="227.40" z="0.20"/>
    </parkingArea>
    <parkingArea id="pa_47" lane="E0_1" startPos="19.50" endPos="20.50" width="2.60" length="4.90" angle="-90.00">
        <space x="255.20" y="224.60" z="0.20"/>
    </parkingArea>
    <parkingArea id="pa_48" lane="E0_1" startPos="20.50" endPos="21.50" width="2.60" length="4.90" angle="-90.00">
        <space x="255.20" y="221.80" z="0.20"/>
    </parkingArea>
    <parkingArea id="pa_49" lane="E0_1" startPos="21.50" endPos="22.50" width="2.60" length="4.90" angle="-90.00">
        <space x="255.20" y="219.00" z="0.20"/>
    </parkingArea>
    <parkingArea id="pa_5" lane="E28.12_0" startPos="2.86" endPos="12.86">
        <space x="283.10" y="219.00" z="0.20" width="2.6" length="4.9" angle="90"/>
    </parkingArea>
    <parkingArea id="pa_50" lane="E27_0" startPos="0.00" endPos="1.00">
        <space x="238.80" y="233.00" z="0.20" width="2.6" length="4.9" angle="-90.00"/>
    </parkingArea>
    <parkingArea id="pa_51" lane="E27_0" startPos="1.00" endPos="2.00">
        <space x="238.80" y="235.80" z="0.20" width="2.6" length="4.9" angle="-90.00"/>
    </parkingArea>
    <parkingArea id="pa_52" lane="E27_0" startPos="2.00" endPos="3.00">
        <space x="238.80" y="238.60" z="0.20" width="2.6" length="4.9" angle="-90.00"/>
    </parkingArea>
    <parkingArea id="pa_53" lane="E27_0" startPos="3.00" endPos="4.00">
        <space x="238.80" y="241.40" z="0.20" width="2.6" length="4.9" angle="-90.00"/>
    </parkingArea>
    <parkingArea id="pa_54" lane="E27_0" startPos="4.00" endPos="5.00">
        <space x="238.80" y="244.20" z="0.20" width="2.6" length="4.9" angle="-90.00"/>
    </parkingArea>
    <parkingArea id="pa_55" lane="E27.16_0" startPos="6.00" endPos="9.00">
        <space x="238.80" y="219.00" z="0.20" width="2.6" length="4.9" angle="-90.00"/>
    </parkingArea>
    <parkingArea id="pa_56" lane="E27.16_0" startPos="2.50" endPos="6.00">
        <space x="238.80" y="221.80" z="0.20" width="2.6" length="4.9" angle="-90.00"/>
    </parkingArea>
    <parkingArea id="pa_57" lane="E27.16_0" startPos="1.00" endPos="2.50">
        <space x="238.80" y="224.60" z="0.20" width="2.6" length="4.9" angle="-90.00"/>
    </parkingArea>
    <parkingArea id="pa_58" lane="E27.16_0" startPos="0.00" endPos="1.00">
        <space x="238.80" y="227.40" z="0.20" width="2.6" length="4.9" angle="-90.00"/>
    </parkingArea>
    <parkingArea id="pa_59" lane="E27.16_0" startPos="0.00" endPos="1.00">
        <space x="238.80" y="230.20" z="0.20" width="2.6" length="4.9" angle="-90.00"/>
    </parkingArea>
    <parkingArea id="pa_6" lane="E28.12_0" startPos="2.86" endPos="12.86">
        <space x="283.10" y="221.80" z="0.20" width="2.6" length="4.9" angle="90"/>
    </parkingArea>
    <parkingArea id="pa_7" lane="E28.12_0" startPos="1.31" endPos="11.31">
        <space x="283.10" y="224.60" z="0.20" width="2.6" length="4.9" angle="90"/>
    </parkingArea>
    <parkingArea id="pa_8" lane="E28.12_0" startPos="0.98" endPos="10.98">
        <space x="283.10" y="227.40" z="0.20" width="2.6" length="4.9" angle="90"/>
    </parkingArea>
    <parkingArea id="pa_9" lane="E28.12_0" startPos="0.65" endPos="10.65">
        <space x="283.10" y="230.20" z="0.20" width="2.6" length="4.9" angle="90"/>
    </parkingArea>
    <!-- Shapes -->
    <poly id="jps.walkable_area_0" type="jupedsim.walkable_area" color="179,217,255" fill="1" layer="1.00" shape="233.940000,250.810000 287.810000,250.470000 287.700000,212.480000 232.960000,211.730000 233.940000,250.810000"/>
    <poly id="000000000" type="building" color="red" fill="1" layer="4.00" shape="345.000000,215.220001 351.500000,215.220001 351.500000,185.220001 345.000000,185.220001"/>
    <poly id="000000001" type="building" color="red" fill="1" layer="4.00" shape="105.378775,325.173811 107.554148,325.173811 107.554148,324.045732 105.378775,324.045732"/>
    <poly id="000000002" type="building" color="red" fill="1" layer="4.00" shape="175.265918,320.952096 179.732861,320.952096 179.732861,319.006461 175.265918,319.006461"/>
    <poly id="000000003" type="building" color="red" fill="1" layer="4.00" shape="259.617944,269.065682 261.851416,269.065682 261.851416,267.120048 259.617944,267.120048"/>
    <poly id="000000004" type="building" color="red" fill="1" layer="4.00" shape="186.487802,302.111134 188.721274,302.111134 188.721274,301.138317 186.487802,301.138317"/>
    <poly id="000000005" type="building" color="red" fill="1" layer="4.00" shape="193.787805,302.111134 196.021277,302.111134 196.021277,301.138317 193.787805,301.138317"/>
    <poly id="000000006" type="building" color="red" fill="1" layer="4.00" shape="166.387811,302.111134 168.621283,302.111134 168.621283,301.138317 166.387811,301.138317"/>
    <poly id="000000007" type="building" color="red" fill="1" layer="4.00" shape="174.387811,302.111134 176.621283,302.111134 176.621283,301.138317 174.387811,301.138317"/>
    <poly id="000000008" type="building" color="red" fill="1" layer="4.00" shape="181.687799,302.111134 183.921271,302.111134 183.921271,301.138317 181.687799,301.138317"/>
    <poly id="000000009" type="building" color="red" fill="1" layer="4.00" shape="172.087808,302.111134 174.321280,302.111134 174.321280,301.138317 172.087808,301.138317"/>
    <poly id="000000010" type="building" color="red" fill="1" layer="4.00" shape="180.087808,302.111134 182.321280,302.111134 182.321280,301.138317 180.087808,301.138317"/>
    <poly id="000000011" type="building" color="red" fill="1" layer="4.00" shape="187.387811,302.111134 189.621283,302.111134 189.621283,301.138317 187.387811,301.138317"/>
    <poly id="000000012" type="building" color="red" fill="1" layer="4.00" shape="178.487802,302.111134 180.721274,302.111134 180.721274,301.138317 178.487802,301.138317"/>
    <poly id="000000013" type="building" color="red" fill="1" layer="4.00" shape="186.487802,302.111134 188.721274,302.111134 188.721274,301.138317 186.487802,301.138317"/>
    <poly id="000000014" type="building" color="red" fill="1" layer="4.00" shape="111.233435,325.173811 113.408808,325.173811 113.408808,324.045732 111.233435,324.045732"/>
    <poly id="000000015" type="building" color="red" fill="1" layer="4.00" shape="193.787805,302.111134 196.021277,302.111134 196.021277,301.138317 193.787805,301.138317"/>
    <poly id="000000016" type="building" color="red" fill="1" layer="4.00" shape="166.387811,302.111134 168.621283,302.111134 168.621283,301.138317 166.387811,301.138317"/>
    <poly id="000000017" type="building" color="red" fill="1" layer="4.00" shape="174.387811,302.111134 176.621283,302.111134 176.621283,301.138317 174.387811,301.138317"/>
    <poly id="000000018" type="building" color="red" fill="1" layer="4.00" shape="181.687799,302.111134 183.921271,302.111134 183.921271,301.138317 181.687799,301.138317"/>
    <poly id="000000019" type="building" color="red" fill="1" layer="4.00" shape="172.087808,302.111134 174.321280,302.111134 174.321280,301.138317 172.087808,301.138317"/>
    <poly id="000000020" type="building" color="red" fill="1" layer="4.00" shape="180.087808,302.111134 182.321280,302.111134 182.321280,301.138317 180.087808,301.138317"/>
    <poly id="000000021" type="building" color="red" fill="1" layer="4.00" shape="187.387811,302.111134 189.621283,302.111134 189.621283,301.138317 187.387811,301.138317"/>
    <poly id="000000022" type="building" color="red" fill="1" layer="4.00" shape="159.482506,152.020138 171.447059,152.020138 171.447059,147.225803 159.482506,147.225803"/>
    <poly id="000000023" type="building" color="red" fill="1" layer="4.00" shape="252.507181,269.065682 254.740652,269.065682 254.740652,267.120048 252.507181,267.120048"/>
    <poly id="000000024" type="building" color="red" fill="1" layer="4.00" shape="108.842794,325.173811 111.018167,325.173811 111.018167,324.045732 108.842794,324.045732"/>
    <poly id="000000025" type="building" color="red" fill="1" layer="4.00" shape="287.998132,271.964517 284.647925,271.964517 284.647925,270.018882 287.998132,270.018882"/>
    <poly id="000000026" type="building" color="red" fill="1" layer="4.00" shape="284.594537,271.964517 281.244330,271.964517 281.244330,270.018882 284.594537,270.018882"/>
    <poly id="000000027" type="building" color="red" fill="1" layer="4.00" shape="266.028711,269.065682 268.262182,269.065682 268.262182,267.120048 266.028711,267.120048"/>
    <poly id="000000028" type="building" color="red" fill="1" layer="4.00" shape="269.300012,269.065682 271.533484,269.065682 271.533484,267.120048 269.300012,267.120048"/>
    <poly id="000000029" type="building" color="red" fill="1" layer="4.00" shape="272.333643,269.065682 274.567114,269.065682 274.567114,267.120048 272.333643,267.120048"/>
    <poly id="000000030" type="building" color="red" fill="1" layer="4.00" shape="279.639093,269.065682 281.872565,269.065682 281.872565,267.120048 279.639093,267.120048"/>
    <poly id="000000031" type="building" color="red" fill="1" layer="4.00" shape="102.988150,325.173811 105.163523,325.173811 105.163523,324.045732 102.988150,324.045732"/>
    <poly id="000000032" type="building" color="red" fill="1" layer="4.00" shape="268.262182,271.880258 266.028711,271.880258 266.028711,269.934623 268.262182,269.934623"/>
    <poly id="000000033" type="building" color="red" fill="1" layer="4.00" shape="271.533484,271.880258 269.300012,271.880258 269.300012,269.934623 271.533484,269.934623"/>
    <poly id="000000034" type="building" color="red" fill="1" layer="4.00" shape="274.567114,271.880258 272.333643,271.880258 272.333643,269.934623 274.567114,269.934623"/>
    <poly id="000000035" type="building" color="red" fill="1" layer="4.00" shape="266.028711,257.759042 268.262182,257.759042 268.262182,255.813407 266.028711,255.813407"/>
    <poly id="000000036" type="building" color="red" fill="1" layer="4.00" shape="269.300012,257.759042 271.533484,257.759042 271.533484,255.813407 269.300012,255.813407"/>
    <poly id="000000037" type="building" color="red" fill="1" layer="4.00" shape="272.333643,257.759042 274.567114,257.759042 274.567114,255.813407 272.333643,255.813407"/>
    <poly id="000000038" type="building" color="red" fill="1" layer="4.00" shape="252.840112,257.759042 255.073584,257.759042 255.073584,255.813407 252.840112,255.813407"/>
    <poly id="000000039" type="building" color="red" fill="1" layer="4.00" shape="256.111414,257.759042 258.344885,257.759042 258.344885,255.813407 256.111414,255.813407"/>
    <poly id="000000040" type="building" color="red" fill="1" layer="4.00" shape="259.145044,257.759042 261.378515,257.759042 261.378515,255.813407 259.145044,255.813407"/>
    <poly id="000000041" type="building" color="red" fill="1" layer="4.00" shape="242.692102,257.759042 244.925574,257.759042 244.925574,255.813407 242.692102,255.813407"/>
    <poly id="000000042" type="building" color="red" fill="1" layer="4.00" shape="254.819831,278.469674 258.170038,278.469674 258.170038,276.524039 254.819831,276.524039"/>
    <poly id="000000043" type="building" color="red" fill="1" layer="4.00" shape="245.963419,257.759042 248.196890,257.759042 248.196890,255.813407 245.963419,255.813407"/>
    <poly id="000000044" type="building" color="red" fill="1" layer="4.00" shape="248.997034,257.759042 251.230505,257.759042 251.230505,255.813407 248.997034,255.813407"/>
    <poly id="000000045" type="building" color="red" fill="1" layer="4.00" shape="255.073584,262.570230 252.840112,262.570230 252.840112,260.624595 255.073584,260.624595"/>
    <poly id="000000046" type="building" color="red" fill="1" layer="4.00" shape="258.344885,262.570230 256.111414,262.570230 256.111414,260.624595 258.344885,260.624595"/>
    <poly id="000000047" type="building" color="red" fill="1" layer="4.00" shape="261.378515,262.570230 259.145044,262.570230 259.145044,260.624595 261.378515,260.624595"/>
    <poly id="000000048" type="building" color="red" fill="1" layer="4.00" shape="244.925574,262.570230 242.692102,262.570230 242.692102,260.624595 244.925574,260.624595"/>
    <poly id="000000049" type="building" color="red" fill="1" layer="4.00" shape="248.196890,262.570230 245.963419,262.570230 245.963419,260.624595 248.196890,260.624595"/>
    <poly id="000000050" type="building" color="red" fill="1" layer="4.00" shape="251.230505,262.570230 248.997034,262.570230 248.997034,260.624595 251.230505,260.624595"/>
    <poly id="000000051" type="building" color="red" fill="1" layer="4.00" shape="238.085440,262.570230 235.851969,262.570230 235.851969,260.624595 238.085440,260.624595"/>
    <poly id="000000052" type="building" color="red" fill="1" layer="4.00" shape="170.867038,320.952096 175.333981,320.952096 175.333981,319.006461 170.867038,319.006461"/>
    <poly id="000000053" type="building" color="red" fill="1" layer="4.00" shape="238.085440,271.929879 235.851969,271.929879 235.851969,269.984244 238.085440,269.984244"/>
    <poly id="000000054" type="building" color="red" fill="1" layer="4.00" shape="244.694067,271.929879 242.460596,271.929879 242.460596,269.984244 244.694067,269.984244"/>
    <poly id="000000055" type="building" color="red" fill="1" layer="4.00" shape="247.965384,271.929879 245.731912,271.929879 245.731912,269.984244 247.965384,269.984244"/>
    <poly id="000000056" type="building" color="red" fill="1" layer="4.00" shape="266.028681,278.456979 268.262152,278.456979 268.262152,276.511344 266.028681,276.511344"/>
    <poly id="000000057" type="building" color="red" fill="1" layer="4.00" shape="269.299982,278.456979 271.533453,278.456979 271.533453,276.511344 269.299982,276.511344"/>
    <poly id="000000058" type="building" color="red" fill="1" layer="4.00" shape="272.333612,278.456979 274.567084,278.456979 274.567084,276.511344 272.333612,276.511344"/>
    <poly id="000000059" type="building" color="red" fill="1" layer="4.00" shape="242.592859,278.456979 244.826330,278.456979 244.826330,276.511344 242.592859,276.511344"/>
    <poly id="000000060" type="building" color="red" fill="1" layer="4.00" shape="325.853058,150.467126 331.436737,150.467126 331.436737,148.521491 325.853058,148.521491"/>
    <poly id="000000061" type="building" color="red" fill="1" layer="4.00" shape="166.532520,320.952096 170.999463,320.952096 170.999463,319.006461 166.532520,319.006461"/>
    <poly id="000000062" type="building" color="red" fill="1" layer="4.00" shape="325.853058,156.094949 331.436737,156.094949 331.436737,154.149314 325.853058,154.149314"/>
    <poly id="000000063" type="building" color="red" fill="1" layer="4.00" shape="326.411426,160.535714 330.878369,160.535714 330.878369,158.590079 326.411426,158.590079"/>
    <poly id="000000064" type="building" color="red" fill="1" layer="4.00" shape="326.411426,171.555902 330.878369,171.555902 330.878369,169.610267 326.411426,169.610267"/>
    <poly id="000000065" type="building" color="red" fill="1" layer="4.00" shape="325.853058,177.460366 331.436737,177.460366 331.436737,175.514731 325.853058,175.514731"/>
    <poly id="000000066" type="building" color="red" fill="1" layer="4.00" shape="325.853058,183.241220 331.436737,183.241220 331.436737,181.295585 325.853058,181.295585"/>
    <poly id="000000067" type="building" color="red" fill="1" layer="4.00" shape="324.111408,224.266671 328.578351,224.266671 328.578351,222.321036 324.111408,222.321036"/>
    <poly id="000000068" type="building" color="red" fill="1" layer="4.00" shape="324.111408,228.768929 328.578351,228.768929 328.578351,226.823295 324.111408,226.823295"/>
    <poly id="000000069" type="building" color="red" fill="1" layer="4.00" shape="324.111408,233.393624 328.578351,233.393624 328.578351,231.447989 324.111408,231.447989"/>
    <poly id="000000070" type="building" color="red" fill="1" layer="4.00" shape="324.111408,246.275033 328.578351,246.275033 328.578351,244.329398 324.111408,244.329398"/>
    <poly id="000000071" type="building" color="red" fill="1" layer="4.00" shape="324.111408,250.777291 328.578351,250.777291 328.578351,248.831656 324.111408,248.831656"/>
    <poly id="000000072" type="building" color="red" fill="1" layer="4.00" shape="324.111408,255.401986 328.578351,255.401986 328.578351,253.456351 324.111408,253.456351"/>
    <poly id="000000073" type="building" color="red" fill="1" layer="4.00" shape="344.225585,150.267129 338.641907,150.267129 338.641907,148.321494 344.225585,148.321494"/>
    <poly id="000000074" type="building" color="red" fill="1" layer="4.00" shape="344.225585,155.894952 338.641907,155.894952 338.641907,153.949317 344.225585,153.949317"/>
    <poly id="000000075" type="building" color="red" fill="1" layer="4.00" shape="343.667218,160.435723 339.200275,160.435723 339.200275,158.490088 343.667218,158.490088"/>
    <poly id="000000076" type="building" color="red" fill="1" layer="4.00" shape="344.783953,173.772637 338.083539,173.772637 338.083539,171.827003 344.783953,171.827003"/>
    <poly id="000000077" type="building" color="red" fill="1" layer="4.00" shape="343.667218,178.158166 339.200275,178.158166 339.200275,176.212531 343.667218,176.212531"/>
    <poly id="000000078" type="building" color="red" fill="1" layer="4.00" shape="343.667218,182.582864 339.200275,182.582864 339.200275,180.637229 343.667218,180.637229"/>
    <poly id="000000079" type="building" color="red" fill="1" layer="4.00" shape="341.267224,224.266671 336.800281,224.266671 336.800281,222.321036 341.267224,222.321036"/>
    <poly id="000000080" type="building" color="red" fill="1" layer="4.00" shape="341.267224,228.768945 336.800281,228.768945 336.800281,226.823310 341.267224,226.823310"/>
    <poly id="000000081" type="building" color="red" fill="1" layer="4.00" shape="341.267224,233.393624 336.800281,233.393624 336.800281,231.447989 341.267224,231.447989"/>
    <poly id="000000082" type="building" color="red" fill="1" layer="4.00" shape="173.628986,302.711129 178.095929,302.711129 178.095929,300.765494 173.628986,300.765494"/>
    <poly id="000000083" type="building" color="red" fill="1" layer="4.00" shape="178.487802,302.111134 180.721274,302.111134 180.721274,301.138317 178.487802,301.138317"/>
    <poly id="000000084" type="building" color="red" fill="1" layer="4.00" shape="341.267224,246.275033 336.800281,246.275033 336.800281,244.329398 341.267224,244.329398"/>
    <poly id="000000085" type="building" color="red" fill="1" layer="4.00" shape="341.267224,250.777307 336.800281,250.777307 336.800281,248.831672 341.267224,248.831672"/>
    <poly id="000000086" type="building" color="red" fill="1" layer="4.00" shape="341.267224,255.401986 336.800281,255.401986 336.800281,253.456351 341.267224,253.456351"/>
    <poly id="000000087" type="building" color="red" fill="1" layer="4.00" shape="165.286139,136.064818 167.461512,136.064818 167.461512,134.936739 165.286139,134.936739"/>
    <poly id="000000088" type="building" color="red" fill="1" layer="4.00" shape="165.286139,137.928557 167.461512,137.928557 167.461512,136.800478 165.286139,136.800478"/>
    <poly id="000000089" type="building" color="red" fill="1" layer="4.00" shape="165.286139,139.683027 167.461512,139.683027 167.461512,138.554949 165.286139,138.554949"/>
    <poly id="000000090" type="building" color="red" fill="1" layer="4.00" shape="171.853933,135.521605 174.029306,135.521605 174.029306,134.393526 171.853933,134.393526"/>
    <poly id="000000091" type="building" color="red" fill="1" layer="4.00" shape="169.990179,135.521589 172.165552,135.521589 172.165552,134.393511 169.990179,134.393511"/>
    <poly id="000000092" type="building" color="red" fill="1" layer="4.00" shape="167.912008,135.521605 170.087381,135.521605 170.087381,134.393526 167.912008,134.393526"/>
    <poly id="000000093" type="building" color="red" fill="1" layer="4.00" shape="174.029306,142.425886 171.853933,142.425886 171.853933,141.297808 174.029306,141.297808"/>
    <poly id="000000094" type="building" color="red" fill="1" layer="4.00" shape="198.983020,302.711129 203.449963,302.711129 203.449963,300.765494 198.983020,300.765494"/>
    <poly id="000000095" type="building" color="red" fill="1" layer="4.00" shape="172.165552,142.425902 169.990179,142.425902 169.990179,141.297823 172.165552,141.297823"/>
    <poly id="000000096" type="building" color="red" fill="1" layer="4.00" shape="170.087381,142.425886 167.912008,142.425886 167.912008,141.297808 170.087381,141.297808"/>
    <poly id="000000097" type="building" color="red" fill="1" layer="4.00" shape="165.286139,171.006468 167.461512,171.006468 167.461512,169.878389 165.286139,169.878389"/>
    <poly id="000000098" type="building" color="red" fill="1" layer="4.00" shape="165.286139,172.870207 167.461512,172.870207 167.461512,171.742128 165.286139,171.742128"/>
    <poly id="000000099" type="building" color="red" fill="1" layer="4.00" shape="165.286139,174.624678 167.461512,174.624678 167.461512,173.496599 165.286139,173.496599"/>
    <poly id="000000100" type="building" color="red" fill="1" layer="4.00" shape="171.853933,170.463240 174.029306,170.463240 174.029306,169.335161 171.853933,169.335161"/>
    <poly id="000000101" type="building" color="red" fill="1" layer="4.00" shape="169.990179,170.463240 172.165552,170.463240 172.165552,169.335161 169.990179,169.335161"/>
    <poly id="000000102" type="building" color="red" fill="1" layer="4.00" shape="167.912008,170.463240 170.087381,170.463240 170.087381,169.335161 167.912008,169.335161"/>
    <poly id="000000103" type="building" color="red" fill="1" layer="4.00" shape="174.029306,177.367537 171.853933,177.367537 171.853933,176.239458 174.029306,176.239458"/>
    <poly id="000000104" type="building" color="red" fill="1" layer="4.00" shape="172.165552,177.367552 169.990179,177.367552 169.990179,176.239473 172.165552,176.239473"/>
    <poly id="000000105" type="building" color="red" fill="1" layer="4.00" shape="100.619040,325.173811 102.794413,325.173811 102.794413,324.045732 100.619040,324.045732"/>
    <poly id="000000106" type="building" color="red" fill="1" layer="4.00" shape="170.087381,177.367537 167.912008,177.367537 167.912008,176.239458 170.087381,176.239458"/>
    <poly id="000000107" type="building" color="red" fill="1" layer="4.00" shape="199.384387,77.789422 203.851330,77.789422 203.851330,75.843787 199.384387,75.843787"/>