<?xml version="1.0" encoding="UTF-8"?>

<!-- generated on 2023-11-23 12:48:35 by Eclipse SUMO netedit Version 1.18.0
-->

<additional xmlns:xsi="http://www.w3.org/2001/XMLSchema-instance" xsi:noNamespaceSchemaLocation="http://sumo.dlr.de/xsd/additional_file.xsd">
    <!-- StoppingPlaces -->
    <parkingArea id="pa_1" lane="4.0.00_2" startPos="50.05" endPos="60.05" roadsideCapacity="2" onRoad="1"/>
    <parkingArea id="pa_2" lane="4.0.00_2" startPos="39.05" endPos="49.05" roadsideCapacity="2" onRoad="1"/>
    <parkingArea id="pa_3" lane="4.0.00_2" startPos="27.19" endPos="37.19" roadsideCapacity="2" onRoad="1"/>
</additional>
